Circuit: * C:\Users\alexi\OneDrive - USherbrooke\Uni\S1\APP3\APP3 LTspice.asc

Direct Newton iteration for .op point succeeded.
Semiconductor Device Operating Points:
                        --- Diodes ---
Name:    d:u1d:3     d:u1d:2     d:u1d:1     d:u1d:6     d:u1d:5
Model:  u1d:45ma    u1d:20ohm    u1d:iq      u1d:x2      u1d:x1
Id:     -4.66e-05    4.66e-05    6.60e-04   -2.50e-06   -2.44e-09
Vd:     -4.66e-04    1.24e-03    5.00e+00   -5.00e+00   -4.88e-03
Req:     1.00e-01    1.00e-01    5.00e-04    5.00e-07    5.00e-07
CAP:     0.00e+00    0.00e+00    0.00e+00    0.00e+00    0.00e+00

Name:   d:u1d:22    d:u1d:21
Model:   u1d:esd     u1d:esd
Id:     -2.50e-12   -2.51e-12
Vd:     -2.50e+00   -2.50e+00
Req:     1.00e-12    1.00e-12
CAP:     0.00e+00    0.00e+00



Date: Tue Oct 18 15:47:00 2022
Total elapsed time: 0.058 seconds.

tnom = 27
temp = 27
method = trap
totiter = 12
traniter = 0
tranpoints = 0
accept = 0
rejected = 0
matrix size = 17
fillins = 8
solver = Normal
Matrix Compiler1: 982 bytes object code size
Matrix Compiler2: 1.55 KB object code size
